LAMMPS (8 Feb 2019)
Processor partition = 0
echo both

include		in.partitions
variable p_id world   0
include		in.temp
variable	temperature equal 2000.0
variable	tempDamp equal 0.1 # approx 0.1 ps
include		in.pressure
variable	pressure equal 300000.
variable	pressureDamp equal 1.0
include 	in.seed
variable	seed world 74581
units		metal
include		in.box
read_data	data.equil.0
  orthogonal box = (0.192254 0.192254 0.192254) to (15.9917 15.9917 15.9917)
  reading atoms ...
  256 atoms
  reading velocities ...
  256 velocities

variable 	mass equal 26.981539
mass            1 26.981539
include 	in.setup
variable	out_freq equal 500
variable	out_freq2 equal 500

neigh_modify    delay 10 every 1
include		in.al
### Argon Potential Parameters ###
pair_style 	eam/alloy
pair_coeff 	* * Al99.eam.alloy Al

timestep	0.002 # According to Frenkel and Smit is 0.001

thermo          500
thermo_style 	custom step temp pe press lx

restart 	500 Restart.lmp.0 Restart2.lmp.0

# NPT

include		in.dump
dump            myDump all atom 500 dump.na.0
dump            myDcdDump all dcd 500 out.0.dcd
dump_modify	myDump append yes
dump_modify     myDcdDump append yes

timer 		timeout 23:50:00 every 1000
New timer settings: style=normal  mode=nosync  timeout=23:50:00

fix             1 all plumed plumedfile plumed.start.dat outfile plumed.out.0
fix             2 all nph iso 300000 300000 1
fix             3 all temp/csvr 2000 2000 0.1 74581
fix		4 all momentum 10000 linear 1 1 1 angular

run             5000000 upto # 10 ns
  update every 1 steps, delay 10 steps, check yes
Step Temp PotEng Press Lx
0    2414.0258   -736.96035    191436.69    15.799491
Averages over the last 5001 of 10001 rows, steps 2500000 to 5000000:
Temp PotEng Press Lx
2001.04 -723.913 300074 15.2572
Loop time of 17321.9 on 6 procs for 5000000 steps with 256 atoms

write_data	data.final.0
