LAMMPS (1 Feb 2019)
echo both

include		in.temp
variable	temperature equal 375.
variable	tempDamp equal 0.1 # approx 0.1 ps
include		in.pressure
variable	pressure equal 1.
variable	pressureDamp equal 1.0
include 	in.seed
variable	seed equal 74581
units		metal
include		in.box
variable 	mass equal 22.98977

lattice 	bcc 4.228
Lattice spacing in x,y,z = 4.228 4.228 4.228
region          box block 0 5 0 5 0 5
create_box      1 box
Created orthogonal box = (0 0 0) to (21.14 21.14 21.14)
create_atoms    1 box
Created 250 atoms
  Time spent = 0.000240013 secs
mass            1 22.98977
#change_box	all triclinic

include 	in.setup
variable	out_freq equal 500
variable	out_freq2 equal 500

neigh_modify    delay 10 every 1
include		in.na
pair_style 	eam/fs
pair_coeff 	* * Na_MendelevM_2014.eam.fs Na

timestep	0.002 # According to Frenkel and Smit is 0.001

thermo          500
thermo_style 	custom step temp pe press lx

restart 	500 Restart.lmp Restart2.lmp

# NPT

fix             1 all nph iso 1 1 1
fix             2 all temp/csvr 375 375 0.1 74581
fix		3 all momentum 10000 linear 1 1 1 angular

velocity        all create 375 74581 dist gaussian

run             50000
  update every 1 steps, delay 10 steps, check yes
Step Temp PotEng Press Lx
0          375    -277.7555    1357.8047        21.14
Averages over the last 51 of 101 rows, steps 25000 to 50000:
Temp PotEng Press Lx
379.181 -264.009 196.384 21.6212
Loop time of 29.257 on 2 procs for 50000 steps with 250 atoms

unfix		1
unfix		2
unfix		3

include		in.dump
dump            myDump all atom 500 dump.na
dump            myDcdDump all dcd 500 out.dcd
dump_modify	myDump append yes
dump_modify     myDcdDump append yes

timer 		timeout 23:50:00 every 1000
New timer settings: style=normal  mode=nosync  timeout=23:50:00

fix             1 all plumed plumedfile plumed.dat outfile plumed.out
fix             2 all nph iso 1 1 1
fix             3 all temp/csvr 375 375 0.1 74581
fix		4 all momentum 10000 linear 1 1 1 angular

run             500000
Step Temp PotEng Press Lx
50000    377.69384   -264.18288    20.171879    21.632573
Averages over the last 123 of 245 rows, steps 111000 to 172000:
Temp PotEng Press Lx
376.578 -263.915 116.376 21.6322
  1
