LAMMPS (8 Feb 2019)
Processor partition = 4
echo both

include         in.partitions
variable p_id world   0 1 2 3 4 5
include		in.temp
variable	temperature equal 2000.
variable	tempDamp equal 0.1 # approx 0.1 ps
include		in.pressure
variable	pressure equal 300000.
variable	pressureDamp equal 1.0
include 	in.seed
variable	seed world 74581 93734 128321 21934 495716 871038
units		metal
read_restart    Restart.lmp.4
  restoring atom style atomic from restart
  orthogonal box = (0.133023 0.133023 0.133023) to (14.867 14.867 14.867)
  pair style eam/alloy stores no restart info
  250 atoms
include 	in.setup
variable	out_freq equal 500
variable	out_freq2 equal 500

neigh_modify    delay 10 every 1
include		in.al
### Argon Potential Parameters ###
pair_style 	eam/alloy
pair_coeff 	* * Al99.eam.alloy Al

timestep	0.002 # According to Frenkel and Smit is 0.001

thermo          500
thermo_style 	custom step temp pe press lx

restart 	500 Restart.lmp.4 Restart2.lmp.4

timer 		timeout 23:50:00 every 1000
New timer settings: style=normal  mode=nosync  timeout=23:50:00

# NPT

include		in.dump
dump            myDump all atom 500 dump.al.4
dump            myDcdDump all dcd 500 out.4.dcd
dump_modify	myDump append yes
dump_modify     myDcdDump append yes

fix             1 all plumed plumedfile plumed.dat outfile plumed.out
fix             2 all nph iso 300000 300000 1
  fix style: nph, fix ID: 2
fix             3 all temp/csvr 2000 2000 0.1 495716
fix             4 all momentum 10000 linear 1 1 1 angular

run             30000000 upto # 60 ns
All restart file global fix info was re-assigned
  update every 1 steps, delay 10 steps, check yes
Step Temp PotEng Press Lx
14999500    2004.3889   -630.69136    297245.38    14.733954
Averages over the last 15001 of 30002 rows, steps 22500000 to 30000000:
Temp PotEng Press Lx
2000.91 -685.819 300050 15.0934
Loop time of 67374.5 on 6 procs for 15000500 steps with 250 atoms

write_data	data.final
