LAMMPS (8 Feb 2019)
echo both

include		in.temp
variable	temperature equal 350.
variable	tempDamp equal 0.1 # approx 0.1 ps
include		in.pressure
variable	pressure equal 1.
variable	pressureDamp equal 1.0
include 	in.seed
variable	seed equal 74581
units		metal
include		in.box
read_data	data.equil
  orthogonal box = (0.117258 0.117258 0.117258) to (21.8827 21.8827 21.8827)
  reading atoms ...
  250 atoms
  reading velocities ...
  250 velocities

variable 	mass equal 22.98977
mass            1 22.98977
include 	in.setup
variable	out_freq equal 500
variable	out_freq2 equal 500

neigh_modify    delay 10 every 1
include		in.na
pair_style 	eam/fs
pair_coeff 	* * Na_MendelevM_2014.eam.fs Na

timestep	0.002 # According to Frenkel and Smit is 0.001

thermo          500
thermo_style 	custom step temp pe press lx

restart 	500 Restart.lmp Restart2.lmp

# NPT

include		in.dump
dump            myDump all atom 500 dump.na
dump            myDcdDump all dcd 500 out.dcd
dump_modify	myDump append yes
dump_modify     myDcdDump append yes

timer 		timeout 23:50:00 every 1000
New timer settings: style=normal  mode=nosync  timeout=23:50:00

fix             1 all plumed plumedfile plumed.start.dat outfile plumed.out
fix             2 all nph iso 1 1 1
fix             3 all temp/csvr 350 350 0.1 74581
fix		4 all momentum 10000 linear 1 1 1 angular

run             50000000 upto # 100 ns
  update every 1 steps, delay 10 steps, check yes
Step Temp PotEng Press Lx
0    385.09131   -257.83988    139.69237    21.765484
Averages over the last 27495 of 54989 rows, steps 13747000 to 27494000:
Temp PotEng Press Lx
350.004 -260.894 3.06892 21.7015
Loop time of 85800.2 on 8 procs for 27508000 steps with 250 atoms

write_data	data.final
System init for write_data ...
