LAMMPS (8 Feb 2019)
Processor partition = 1
echo both

include         in.partitions
variable p_id world   0 1 2 3 4 5
include		in.temp
variable	temperature equal 2000.
variable	tempDamp equal 0.1 # approx 0.1 ps
include		in.pressure
variable	pressure equal 300000.
variable	pressureDamp equal 1.0
include 	in.seed
variable	seed world 74581 93734 128321 21934 495716 871038
units		metal
read_restart    Restart.lmp.1
  restoring atom style atomic from restart
  orthogonal box = (0.552883 0.552883 0.552883) to (15.6311 15.6311 15.6311)
  pair style eam/alloy stores no restart info
  256 atoms
include 	in.setup
variable	out_freq equal 500
variable	out_freq2 equal 500

neigh_modify    delay 10 every 1
include		in.al
### Argon Potential Parameters ###
pair_style 	eam/alloy
pair_coeff 	* * Al99.eam.alloy Al

timestep	0.002 # According to Frenkel and Smit is 0.001

thermo          500
thermo_style 	custom step temp pe press lx

restart 	500 Restart.lmp.1 Restart2.lmp.1

timer 		timeout 23:50:00 every 1000
New timer settings: style=normal  mode=nosync  timeout=23:50:00

# NPT

include		in.dump
dump            myDump all atom 500 dump.al.1
dump            myDcdDump all dcd 500 out.1.dcd
dump_modify	myDump append yes
dump_modify     myDcdDump append yes

fix             1 all plumed plumedfile plumed.dat outfile plumed.out
fix             2 all nph iso 300000 300000 1
  fix style: nph, fix ID: 2
fix             3 all temp/csvr 2000 2000 0.1 93734
fix             4 all momentum 10000 linear 1 1 1 angular

run             30000000 upto # 60 ns
All restart file global fix info was re-assigned
  update every 1 steps, delay 10 steps, check yes
Step Temp PotEng Press Lx
14999500     1931.691   -710.84167    299804.69    15.078234
Averages over the last 15001 of 30002 rows, steps 22500000 to 30000000:
Temp PotEng Press Lx
1998.88 -699.74 299871 15.1676
Loop time of 60234.7 on 6 procs for 15000500 steps with 256 atoms

write_data	data.final
