LAMMPS (8 Feb 2019)
Processor partition = 3
echo both

include         in.partitions
variable p_id world   0 1 2 3
include		in.temp
variable	temperature equal 1500.0
variable	tempDamp equal 0.1 # approx 0.1 ps
include		in.pressure
variable	pressure equal 300000.
variable	pressureDamp equal 1.0
include 	in.seed
variable	seed world 74581 3459 97394 49764
units		metal
read_restart    Restart.lmp.3
  restoring atom style atomic from restart
  orthogonal box = (-0.708869 -0.708869 1.51221) to (15.8613 15.8613 13.6402)
  pair style eam/alloy stores no restart info
  256 atoms
include 	in.setup
variable	out_freq equal 500
variable	out_freq2 equal 500

neigh_modify    delay 10 every 1
include		in.al
### Argon Potential Parameters ###
pair_style 	eam/alloy
pair_coeff 	* * Al99.eam.alloy Al

timestep	0.002 # According to Frenkel and Smit is 0.001

thermo          500
thermo_style 	custom step temp pe press lx

restart 	500 Restart.lmp.3 Restart2.lmp.3

timer 		timeout 23:50:00 every 1000
New timer settings: style=normal  mode=nosync  timeout=23:50:00

# NPT

include		in.dump
dump            myDump all atom 500 dump.al.3
dump            myDcdDump all dcd 500 out.3.dcd
dump_modify	myDump append yes
dump_modify     myDcdDump append yes

fix             1 all plumed plumedfile plumed.dat outfile plumed.out
fix             2 all nph aniso 300000 300000 1 couple xy
  fix style: nph, fix ID: 2
fix             3 all temp/csvr 1500 1500 0.1 49764
fix             4 all momentum 10000 linear 1 1 1 angular

run             25000000 upto # 50 ns
All restart file global fix info was re-assigned
  update every 1 steps, delay 10 steps, check yes
Step Temp PotEng Press Lx
4999500    1500.8849   -730.79684    310667.55     16.57014
Averages over the last 20001 of 40002 rows, steps 15000000 to 25000000:
Temp PotEng Press Lx
1499.56 -745.529 300089 15.9936
Loop time of 6744.09 on 8 procs for 20000500 steps with 256 atoms

write_data	data.final
