LAMMPS (8 Feb 2019)
Processor partition = 3
echo both

include		in.partitions
variable p_id world   0 1 2 3
include		in.temp
variable	temperature equal 1500.0
variable	tempDamp equal 0.1 # approx 0.1 ps
include		in.pressure
variable	pressure equal 300000.
variable	pressureDamp equal 1.0
include 	in.seed
variable	seed world 74581 3459 97394 49764
units		metal
include		in.box
#variable        side equal 4
#lattice         fcc 4.046
#create_box      1 box
#create_atoms    1 box
#change_box	all triclinic

variable 	mass equal 26.981539
read_data	data.initial
  orthogonal box = (0 0 0) to (15.1524 15.1524 15.1524)
  reading atoms ...
  256 atoms
  reading velocities ...
  256 velocities
mass            1 26.981539
include 	in.setup
variable	out_freq equal 500
variable	out_freq2 equal 500

neigh_modify    delay 10 every 1
include		in.al
### Argon Potential Parameters ###
pair_style 	eam/alloy
pair_coeff 	* * Al99.eam.alloy Al

timestep	0.002 # According to Frenkel and Smit is 0.001

thermo          500
thermo_style 	custom step temp pe press lx

restart 	500 Restart.lmp.3 Restart2.lmp.3

# NPT

include		in.dump
dump            myDump all atom 500 dump.al.3
dump            myDcdDump all dcd 500 out.3.dcd
dump_modify	myDump append yes
dump_modify     myDcdDump append yes

timer 		timeout 23:50:00 every 1000
New timer settings: style=normal  mode=nosync  timeout=23:50:00

fix             1 all plumed plumedfile plumed.start.dat outfile plumed.out.3
fix             2 all nph aniso 300000 300000 1 couple xy
fix             3 all temp/csvr 1500 1500 0.1 49764
fix		4 all momentum 10000 linear 1 1 1 angular

run             5000000 upto # 10 ns
  update every 1 steps, delay 10 steps, check yes
Step Temp PotEng Press Lx
0    1414.9716   -816.23515    248923.17    15.152402
Averages over the last 5001 of 10001 rows, steps 2500000 to 5000000:
Temp PotEng Press Lx
1499.07 -747.831 299813 15.8653
Loop time of 2008.11 on 8 procs for 5000000 steps with 256 atoms

write_data	data.final.3
